ipss.test.plugin.core/testData/psse/v34/Texas2k/Texas2k_series24_case5_2024highrenewables.RAW
@!IC, SBASE,REV,XFRRAT,NXFRAT,BASFRQ
 0,    100.00, 34, 0, 0, 60.00       / August 30, 2024 16:10:52; Simulator Version 23; BuildDate 2023_10_25
Texas2k_series24_case5_2024highrenewables
This is a synthetic power system model that does NOT represent the actual grid. 
GENERAL, THRSHZ=0.0002, PQBRAK=0.7, BLOWUP=5.0
GAUSS, ITMX=100, ACCP=1.6, ACCQ=1.6, ACCM=1.0, TOL=0.0001
NEWTON, ITMXN=50, ACCN=1.0, TOLN=0.1, VCTOLQ=0.1, VCTOLV=0.00001, DVLIM=0.99, NDVFCT=0.99
ADJUST, ADJTHR=0.005, ACCTAP=1.0, TAPLIM=0.05, SWVBND=100.0, MXTPSS=99, MXSWIM=10
TYSL, ITMXTY=20, ACCTY=1.0, TOLTY=0.00001
SOLVER, FNSL, ACTAPS=1, AREAIN=1, PHSHFT=1, DCTAPS=1, SWSHNT=1, FLATST=0, VARLIM=0, NONDIV=0
RATING, 1, "      ", "                                "
RATING, 2, "      ", "                                "
RATING, 3, "      ", "                                "
RATING, 4, "      ", "                                "
RATING, 5, "      ", "                                "
RATING, 6, "      ", "                                "
RATING, 7, "      ", "                                "
RATING, 8, "      ", "                                "
RATING, 9, "      ", "                                "
RATING,10, "      ", "                                "
RATING,11, "      ", "                                "
RATING,12, "      ", "                                "
 0 / END OF SYSTEM-WIDE DATA, BEGIN BUS DATA
@!   I,'NAME        ', BASKV, IDE,AREA,ZONE,OWNER, VM,        VA,    NVHI,   NVLO,   EVHI,   EVLO
 1001,'ODESSA 2 0  ', 115.0000,1,   1,   9,   1,0.96930027,  14.483679, 1.10000, 0.90000, 1.10000, 0.90000
 1002,'PRESIDIO 2 0', 115.0000,1,   1,   9,   1,1.02904749,  41.134954, 1.10000, 0.90000, 1.10000, 0.90000
 1003,'O DONNELL ~1', 115.0000,1,   1,   9,   1,0.99664932,  23.753036, 1.10000, 0.90000, 1.10000, 0.90000
 1004,'O DONNELL ~2', 230.0000,2,   1,   9,   1,1.01000011,  16.851108, 1.10000, 0.90000, 1.10000, 0.90000
 1005,'BIG SPRING~8', 115.0000,1,   1,   9,   1,0.99809474,  30.309347, 1.10000, 0.90000, 1.10000, 0.90000
 1006,'BIG SPRING~9',  13.8000,2,   1,   9,   1,1.00000012,  31.392472, 1.10000, 0.90000, 1.10000, 0.90000
 1007,'VAN HORN 0  ', 115.0000,2,   1,   9,   1,1.02995789,  43.743164, 1.10000, 0.90000, 1.10000, 0.90000
 1008,'IRAAN 2 0   ', 115.0000,1,   1,   9,   1,1.00937712,  29.976116, 1.10000, 0.90000, 1.10000, 0.90000
 1009,'IRAAN 2 1   ',  13.8000,2,   1,   9,   1,1.00474966,  31.646845, 1.10000, 0.90000, 1.10000, 0.90000
 1010,'PRESIDIO 1 0', 115.0000,1,   1,   9,   1,1.03000009,  40.890833, 1.10000, 0.90000, 1.10000, 0.90000
 1011,'PRESIDIO 1 1',  22.0000,2,   1,   9,   1,1.03021789,  42.643798, 1.10000, 0.90000, 1.10000, 0.90000
 1012,'SANDERSON 0 ', 115.0000,1,   1,   9,   1,1.02683079,  16.628043, 1.10000, 0.90000, 1.10000, 0.90000
 1013,'MONAHANS 2 0', 115.0000,1,   1,   9,   1,0.99492276,  28.812511, 1.10000, 0.90000, 1.10000, 0.90000
 1014,'GRANDFALLS 0', 115.0000,1,   1,   9,   1,0.99966115,  30.168396, 1.10000, 0.90000, 1.10000, 0.90000
 1015,'MARFA 0     ', 115.0000,1,   1,   9,   1,1.03279233,  41.766262, 1.10000, 0.90000, 1.10000, 0.90000
 1016,'GARDEN CIT~1', 115.0000,2,   1,   9,   1,1.00000012,  36.051285, 1.10000, 0.90000, 1.10000, 0.90000
 1017,'ODESSA 4 0  ', 115.0000,1,   1,   9,   1,0.97721291,  20.371584, 1.10000, 0.90000, 1.10000, 0.90000
 1018,'NOTREES 0   ', 115.0000,1,   1,   9,   1,0.98870987,  21.786968, 1.10000, 0.90000, 1.10000, 0.90000
 1019,'MIDLAND 4 0 ', 115.0000,1,   1,   9,   1,0.98453867,  17.230604, 1.10000, 0.90000, 1.10000, 0.90000
 1020,'BIG SPRING~1', 115.0000,1,   1,   9,   1,1.00017476,  24.126916, 1.10000, 0.90000, 1.10000, 0.90000
 1021,'BIG SPRING~2',  13.8000,2,   1,   9,   1,1.00000012,  27.479104, 1.10000, 0.90000, 1.10000, 0.90000
 1022,'O DONNELL ~3', 115.0000,2,   1,   9,   1,1.00135636,  24.771500, 1.10000, 0.90000, 1.10000, 0.90000
 1023,'O DONNELL ~4',  13.8000,2,   1,   9,   1,1.01000011,  31.902789, 1.10000, 0.90000, 1.10000, 0.90000
 1024,'ODESSA 6 0  ', 115.0000,1,   1,   9,   1,0.99311399,  22.973020, 1.10000, 0.90000, 1.10000, 0.90000
 1025,'BIG SPRIN~14', 115.0000,1,   1,   9,   1,1.00013471,  25.663299, 1.10000, 0.90000, 1.10000, 0.90000
 1026,'BIG SPRIN~15',  13.8000,2,   1,   9,   1,1.00000012,  30.482072, 1.10000, 0.90000, 1.10000, 0.90000
 1027,'MIDLAND 2 0 ', 115.0000,2,   1,   9,   1,1.01052165,  22.524448, 1.10000, 0.90000, 1.10000, 0.90000
 1028,'COAHOMA 0   ', 115.0000,2,   1,   9,   1,1.00000012,  21.655584, 1.10000, 0.90000, 1.10000, 0.90000
 1029,'MIDLAND 3 0 ', 115.0000,2,   1,   9,   1,1.00000012,  23.462632, 1.10000, 0.90000, 1.10000, 0.90000
 1030,'ALPINE 0    ', 115.0000,2,   1,   9,   1,1.02033842,  37.196288, 1.10000, 0.90000, 1.10000, 0.90000
 1031,'FORT DAVIS 0', 115.0000,1,   1,   9,   1,1.01067269,  37.679691, 1.10000, 0.90000, 1.10000, 0.90000
 1032,'MCCAMEY 1 0 ', 115.0000,2,   1,   9,   1,0.99274337,  28.235865, 1.10000, 0.90000, 1.10000, 0.90000
 1033,'MCCAMEY 1 1 ', 230.0000,2,   1,   9,   1,1.00000012,  24.759443, 1.10000, 0.90000, 1.10000, 0.90000
 1034,'BIG SPRING~6', 115.0000,1,   1,   9,   1,1.00097811,  33.102638, 1.10000, 0.90000, 1.10000, 0.90000
 1035,'BIG SPRING~7',  13.8000,2,   1,   9,   1,1.00000012,  34.750186, 1.10000, 0.90000, 1.10000, 0.90000
 1036,'CRANE 0     ', 115.0000,2,   1,   9,   1,0.99714708,  32.194544, 1.10000, 0.90000, 1.10000, 0.90000
 1037,'ODESSA 5 0  ', 115.0000,2,   1,   9,   1,0.97193325,  18.703512, 1.10000, 0.90000, 1.10000, 0.90000
 1038,'FORT STOCK~1', 115.0000,1,   1,   9,   1,1.01094508,  33.332276, 1.10000, 0.90000, 1.10000, 0.90000
 1039,'FORT STOCK~2',  22.0000,2,   1,   9,   1,1.00182438,  36.033732, 1.10000, 0.90000, 1.10000, 0.90000
 1040,'ANDREWS 0   ', 115.0000,2,   1,   9,   1,1.00000012,  25.312854, 1.10000, 0.90000, 1.10000, 0.90000
 1041,'FORSAN 0    ', 115.0000,1,   1,   9,   1,1.00364888,  32.361877, 1.10000, 0.90000, 1.10000, 0.90000
 1042,'FORSAN 1    ',  13.8000,1,   1,   9,   1,1.00364888,  32.361877, 1.10000, 0.90000, 1.10000, 0.90000
 1043,'FORSAN 2    ',  13.8000,2,   1,   9,   1,1.00000012,  33.984081, 1.10000, 0.90000, 1.10000, 0.90000
 1044,'BIG LAKE 0  ', 115.0000,2,   1,   9,   1,1.00000012,  13.889008, 1.10000, 0.90000, 1.10000, 0.90000
 1045,'MIDLAND 5 0 ', 115.0000,1,   1,   9,   1,0.97474700,  16.860105, 1.10000, 0.90000, 1.10000, 0.90000
 1046,'OZONA 0     ', 115.0000,2,   1,   9,   1,1.00000012,  23.664509, 1.10000, 0.90000, 1.10000, 0.90000
 1047,'MONAHANS 1 0', 115.0000,1,   1,   9,   1,0.99187481,  25.239398, 1.10000, 0.90000, 1.10000, 0.90000
 1048,'MONAHANS 1 1',  18.0000,1,   1,   9,   1,0.99187481,  25.239398, 1.10000, 0.90000, 1.10000, 0.90000
 1049,'MONAHANS 1 2',  18.0000,1,   1,   9,   1,0.99187481,  25.239398, 1.10000, 0.90000, 1.10000, 0.90000
 1050,'MONAHANS 1 3',  18.0000,2,   1,   9,   1,1.00000012,  26.420944, 1.10000, 0.90000, 1.10000, 0.90000
 1051,'MONAHANS 1 4',  18.0000,1,   1,   9,   1,0.99187481,  25.239398, 1.10000, 0.90000, 1.10000, 0.90000
 1052,'MONAHANS 1 5',  18.0000,1,   1,   9,   1,0.99187481,  25.239398, 1.10000, 0.90000, 1.10000, 0.90000
 1053,'MONAHANS 1 6', 230.0000,1,   1,   9,   1,0.99622017,  22.268664, 1.10000, 0.90000, 1.10000, 0.90000
 1054,'STANTON 0   ', 115.0000,1,   1,   9,   1,1.00922346,  26.768358, 1.10000, 0.90000, 1.10000, 0.90000
 1055,'ODONNELL 0  ', 115.0000,2,   1,   9,   1,1.00000012,  24.828106, 1.10000, 0.90000, 1.10000, 0.90000
 1056,'LENORAH 0   ', 115.0000,1,   1,   9,   1,1.02169251,  25.773697, 1.10000, 0.90000, 1.10000, 0.90000
 1057,'LENORAH 1   ',  18.0000,1,   1,   9,   1,1.02169251,  25.773697, 1.10000, 0.90000, 1.10000, 0.90000
 1058,'IRAAN 3 0   ', 115.0000,1,   1,   9,   1,1.01770473,  28.011034, 1.10000, 0.90000, 1.10000, 0.90000
 1059,'IRAAN 3 1   ',  22.0000,1,   1,   9,   1,1.01770473,  28.011034, 1.10000, 0.90000, 1.10000, 0.90000
 1060,'IRAAN 3 2   ',  22.0000,1,   1,   9,   1,1.01770473,  28.011034, 1.10000, 0.90000, 1.10000, 0.90000
 1061,'BIG SPRIN~10', 115.0000,2,   1,   9,   1,1.00000012,  28.936633, 1.10000, 0.90000, 1.10000, 0.90000
 1062,'BIG SPRIN~11',  13.8000,2,   1,   9,   1,1.01000011,  31.015134, 1.10000, 0.90000, 1.10000, 0.90000
 1063,'BIG SPRIN~12',  13.8000,2,   1,   9,   1,1.01000011,  30.976773, 1.10000, 0.90000, 1.10000, 0.90000
 1064,'ODESSA 3 0  ', 115.0000,1,   1,   9,   1,0.96545839,  14.840959, 1.10000, 0.90000, 1.10000, 0.90000
 1065,'BIG SPRING~4', 115.0000,1,   1,   9,   1,1.00570631,  32.558791, 1.10000, 0.90000, 1.10000, 0.90000
 1066,'BIG SPRING~5',  13.8000,2,   1,   9,   1,1.00000012,  36.325507, 1.10000, 0.90000, 1.10000, 0.90000
 1067,'BIG SPRIN~13', 115.0000,1,   1,   9,   1,1.00143230,  31.762186, 1.10000, 0.90000, 1.10000, 0.90000
 1068,'MIDLAND 1 0 ', 115.0000,1,   1,   9,   1,0.98972714,  34.646135, 1.10000, 0.90000, 1.10000, 0.90000
 1069,'IRAAN 1 0   ', 115.0000,1,   1,   9,   1,1.01620448,  30.474757, 1.10000, 0.90000, 1.10000, 0.90000
 1070,'IRAAN 1 1   ',  13.8000,2,   1,   9,   1,1.02876818,  32.756655, 1.10000, 0.90000, 1.10000, 0.90000
 1071,'ODESSA 1 0  ', 115.0000,1,   1,   9,   1,0.97322077,  14.283083, 1.10000, 0.90000, 1.10000, 0.90000
 1072,'ODESSA 1 1  ',  18.0000,2,   1,   9,   1,1.01000011,  16.012689, 1.10000, 0.90000, 1.10000, 0.90000
 1073,'ODESSA 1 2  ',  18.0000,2,   1,   9,   1,1.01000011,  17.306530, 1.10000, 0.90000, 1.10000, 0.90000
 1074,'ODESSA 1 3  ',  18.0000,1,   1,   9,   1,0.97322077,  14.283083, 1.10000, 0.90000, 1.10000, 0.90000
 1075,'ODESSA 1 4  ',  18.0000,1,   1,   9,   1,0.97322077,  14.283083, 1.10000, 0.90000, 1.10000, 0.90000
 1076,'ODESSA 1 5  ',  18.0000,1,   1,   9,   1,0.97322077,  14.283083, 1.10000, 0.90000, 1.10000, 0.90000
 1077,'ODESSA 1 6  ',  18.0000,1,   1,   9,   1,0.97322077,  14.283083, 1.10000, 0.90000, 1.10000, 0.90000
 1078,'ODESSA 1 7  ',  18.0000,1,   1,   9,   1,0.97322077,  14.283083, 1.10000, 0.90000, 1.10000, 0.90000
 1079,'ODESSA 1 8  ', 500.0000,1,   1,   9,   1,0.99791682,  -3.081369, 1.10000, 0.90000, 1.10000, 0.90000
 1080,'ODESSA 1 9  ',  18.0000,1,   1,   9,   1,0.97322077,  14.283083, 1.10000, 0.90000, 1.10000, 0.90000
 1081,'ODESSA 1 10 ', 230.0000,1,   1,   9,   1,0.99723780,  20.241228, 1.10000, 0.90000, 1.10000, 0.90000
 1082,'FORT STOCK~3', 115.0000,2,   1,   9,   1,1.01322949,  33.414552, 1.10000, 0.90000, 1.10000, 0.90000
 1083,'FORT STOCK~4', 115.0000,2,   1,   9,   1,1.01383698,  36.233481, 1.10000, 0.90000, 1.10000, 0.90000
 1084,'BIG SPRING~3', 115.0000,2,   1,   9,   1,1.00316775,  22.558242, 1.10000, 0.90000, 1.10000, 0.90000
 1085,'KERMIT 0    ', 115.0000,2,   1,   9,   1,1.00000012,  27.936206, 1.10000, 0.90000, 1.10000, 0.90000
 1086,'PECOS 0     ', 115.0000,2,   1,   9,   1,1.01849437,  28.486842, 1.10000, 0.90000, 1.10000, 0.90000
 1087,'SHEFFIELD 0 ', 115.0000,1,   1,   9,   1,1.02787077,  23.019858, 1.10000, 0.90000, 1.10000, 0.90000
 1088,'MCCAMEY 2 0 ', 115.0000,2,   1,   9,   1,1.00000012,  35.187864, 1.10000, 0.90000, 1.10000, 0.90000
 1089,'LAMESA 0    ', 115.0000,2,   1,   9,   1,1.00000012,  30.154770, 1.10000, 0.90000, 1.10000, 0.90000
 1090,'GOLDSMITH 0 ', 115.0000,2,   1,   9,   1,1.00366163,  24.416531, 1.10000, 0.90000, 1.10000, 0.90000
 1091,'RALLS 2 0   ', 161.0000,1,   1,   9,   1,0.98181558,  23.942045, 1.10000, 0.90000, 1.10000, 0.90000
 2001,'PARIS 3 0   ', 161.0000,1,   2,  11,   1,1.02737105, -29.043945, 1.10000, 0.90000, 1.10000, 0.90000
 2002,'SAVOY 0     ', 500.0000,1,   2,  11,   1,1.02990460, -28.374696, 1.10000, 0.90000, 1.10000, 0.90000
 2003,'SAVOY 1     ', 161.0000,1,   2,  11,   1,1.02961767, -29.015651, 1.10000, 0.90000, 1.10000, 0.90000
 2004,'SAVOY 2     ',  13.8000,1,   2,  11,   1,1.02990460, -28.374696, 1.10000, 0.90000, 1.10000, 0.90000
 2005,'SAVOY 3     ',  13.8000,1,   2,  11,   1,1.02990460, -28.374696, 1.10000, 0.90000, 1.10000, 0.90000
 2006,'SAVOY 4     ',  13.8000,1,   2,  11,   1,1.02990460, -28.374696, 1.10000, 0.90000, 1.10000, 0.90000
 2007,'HONEY GROV~1', 161.0000,1,   2,  11,   1,1.02807319, -28.650769, 1.10000, 0.90000, 1.10000, 0.90000
 2008,'MEMPHIS 0   ', 161.0000,2,   2,  10,   1,1.00231791,  30.351120, 1.10000, 0.90000, 1.10000, 0.90000
 2009,'IOWA PARK 0 ', 161.0000,1,   2,  11,   1,0.99635506,   1.010142, 1.10000, 0.90000, 1.10000, 0.90000
 2010,'VERNON 2 0  ', 161.0000,2,   2,  10,   1,1.00000012,  22.381654, 1.10000, 0.90000, 1.10000, 0.90000
 2011,'PANHANDLE ~2', 500.0000,2,   2,  10,   1,1.01999724,  16.076489, 1.10000, 0.90000, 1.10000, 0.90000
 2012,'PANHANDLE ~3', 161.0000,2,   2,  10,   1,0.99632365,  22.140027, 1.10000, 0.90000, 1.10000, 0.90000
 2013,'PANHANDLE ~4',  18.0000,2,   2,  10,   1,1.00922966,  18.604653, 1.10000, 0.90000, 1.10000, 0.90000
 2014,'CHILDRESS 0 ', 161.0000,1,   2,  10,   1,0.99810183,  31.561843, 1.10000, 0.90000, 1.10000, 0.90000
 2015,'FORESTBURG 0', 161.0000,1,   2,  11,   1,1.00240433, -18.961923, 1.10000, 0.90000, 1.10000, 0.90000
 2016,'SHERMAN 3 0 ', 161.0000,2,   2,  11,   1,1.02316308, -31.278715, 1.10000, 0.90000, 1.10000, 0.90000
 2017,'PANHANDLE ~7', 500.0000,1,   2,  10,   1,1.03003085,  11.169866, 1.10000, 0.90000, 1.10000, 0.90000
 2018,'PANHANDLE ~8', 161.0000,1,   2,  10,   1,1.00583303,  14.855195, 1.10000, 0.90000, 1.10000, 0.90000
 2019,'PANHANDLE ~9',  20.0000,1,   2,  10,   1,1.03003085,  11.169866, 1.10000, 0.90000, 1.10000, 0.90000
 2020,'WICHITA F~12', 161.0000,1,   2,  11,   1,0.97908109,  -4.836575, 1.10000, 0.90000, 1.10000, 0.90000
 2021,'PARIS 2 0   ', 500.0000,1,   2,  11,   1,1.03504360, -27.832321, 1.10000, 0.90000, 1.10000, 0.90000
 2022,'PARIS 2 1   ', 161.0000,1,   2,  11,   1,1.03232515, -28.513629, 1.10000, 0.90000, 1.10000, 0.90000
 2023,'PARIS 2 2   ',  13.8000,1,   2,  11,   1,1.03504360, -27.832321, 1.10000, 0.90000, 1.10000, 0.90000
 2024,'PARIS 2 3   ',  13.8000,1,   2,  11,   1,1.03504360, -27.832321, 1.10000, 0.90000, 1.10000, 0.90000
 2025,'WICHITA F~10', 161.0000,1,   2,  11,   1,0.97755945,  -4.920646, 1.10000, 0.90000, 1.10000, 0.90000
 2026,'WHEELER 0   ', 161.0000,1,   2,  10,   1,1.00260770,  17.579645, 1.10000, 0.90000, 1.10000, 0.90000
 2027,'DEPORT 0    ', 161.0000,1,   2,  11,   1,1.02869308, -29.173702, 1.10000, 0.90000, 1.10000, 0.90000
 2028,'WICHITA FA~9', 161.0000,1,   2,  11,   1,0.98638564,  -4.596851, 1.10000, 0.90000, 1.10000, 0.90000
 2029,'SILVERTON 0 ', 161.0000,2,   2,  10,   1,1.00000012,  33.057651, 1.10000, 0.90000, 1.10000, 0.90000
 2030,'BONHAM 0    ', 161.0000,1,   2,  11,   1,1.01728690, -29.841421, 1.10000, 0.90000, 1.10000, 0.90000
 2031,'MATADOR 0   ', 161.0000,1,   2,  10,   1,1.00195742,  24.777522, 1.10000, 0.90000, 1.10000, 0.90000
 2032,'ARTHUR CIT~1', 161.0000,1,   2,  11,   1,1.02971411, -28.461680, 1.10000, 0.90000, 1.10000, 0.90000
 2033,'LEONARD 0   ', 161.0000,1,   2,  11,   1,1.01837480, -30.096467, 1.10000, 0.90000, 1.10000, 0.90000
 2034,'GORDONVILL~1', 161.0000,1,   2,  11,   1,1.02567124, -31.167574, 1.10000, 0.90000, 1.10000, 0.90000
 2035,'KNOX CITY 0 ', 161.0000,2,   2,  10,   1,1.00000012,  33.369138, 1.10000, 0.90000, 1.10000, 0.90000
 2036,'WICHITA F~13', 161.0000,1,   2,  11,   1,0.98087031,  -3.504055, 1.10000, 0.90000, 1.10000, 0.90000
 2037,'LINDSAY 0   ', 161.0000,1,   2,  11,   1,1.00971353, -18.977609, 1.10000, 0.90000, 1.10000, 0.90000
 2038,'ECTOR 0     ', 161.0000,1,   2,  11,   1,1.02902794, -28.881141, 1.10000, 0.90000, 1.10000, 0.90000
 2039,'SUNSET 0    ', 161.0000,1,   2,  11,   1,0.99272597, -18.115928, 1.10000, 0.90000, 1.10000, 0.90000
 2040,'CLARKSVILL~1', 161.0000,1,   2,  11,   1,1.03226697, -28.732632, 1.10000, 0.90000, 1.10000, 0.90000
 2041,'PANHANDLE ~5', 161.0000,2,   2,  10,   1,1.00000012,  26.236152, 1.10000, 0.90000, 1.10000, 0.90000
 2042,'PANHANDLE ~6',  18.0000,2,   2,  10,   1,1.01000011,  29.813352, 1.10000, 0.90000, 1.10000, 0.90000
 2043,'SADLER 0    ', 161.0000,1,   2,  11,   1,1.02456295, -31.225661, 1.10000, 0.90000, 1.10000, 0.90000
 2044,'WHITESBORO 0', 161.0000,1,   2,  11,   1,1.00751805, -24.129498, 1.10000, 0.90000, 1.10000, 0.90000
 2045,'SHEPPARD A~1', 161.0000,1,   2,  11,   1,0.98023939,  -4.813347, 1.10000, 0.90000, 1.10000, 0.90000
 2046,'POTTSBORO 0 ', 161.0000,1,   2,  11,   1,1.02707016, -31.079014, 1.10000, 0.90000, 1.10000, 0.90000
 2047,'BELLS 0     ', 161.0000,1,   2,  11,   1,1.02910960, -29.398063, 1.10000, 0.90000, 1.10000, 0.90000
 2048,'CROSBYTON 0 ', 161.0000,2,   2,  10,   1,1.00000012,  25.627783, 1.10000, 0.90000, 1.10000, 0.90000
 2049,'ELECTRA 0   ', 161.0000,2,   2,  10,   1,1.00000012,   9.963677, 1.10000, 0.90000, 1.10000, 0.90000
 2050,'PATTONVILL~1', 161.0000,1,   2,  11,   1,1.02383506, -29.906718, 1.10000, 0.90000, 1.10000, 0.90000
 2051,'HENRIETTA 0 ', 161.0000,2,   2,  11,   1,1.00000012,  -9.427014, 1.10000, 0.90000, 1.10000, 0.90000
 2052,'PANHANDLE~13', 161.0000,1,   2,  10,   1,0.99434471,  26.118068, 1.10000, 0.90000, 1.10000, 0.90000
 2053,'BOWIE 0     ', 161.0000,1,   2,  11,   1,0.99313861, -20.573759, 1.10000, 0.90000, 1.10000, 0.90000
 2054,'WICHITA FA~1', 500.0000,1,   2,  11,   1,0.98160970,  -5.634742, 1.10000, 0.90000, 1.10000, 0.90000
 2055,'WICHITA FA~2', 161.0000,1,   2,  11,   1,0.97878897,  -4.776514, 1.10000, 0.90000, 1.10000, 0.90000
 2056,'WICHITA FA~3',  18.0000,1,   2,  11,   1,0.98160970,  -5.634742, 1.10000, 0.90000, 1.10000, 0.90000
 2057,'WICHITA FA~4',  18.0000,2,   2,  11,   1,0.99000013,  -5.384850, 1.10000, 0.90000, 1.10000, 0.90000
 2058,'WHITE DEER 0', 161.0000,1,   2,  10,   1,1.00098026,  25.032502, 1.10000, 0.90000, 1.10000, 0.90000
 2059,'WHITE DEER 1',  13.8000,2,   2,  10,   1,1.00000012,  28.505405, 1.10000, 0.90000, 1.10000, 0.90000
 2060,'ROXTON 0    ', 161.0000,1,   2,  11,   1,1.02479458, -29.450444, 1.10000, 0.90000, 1.10000, 0.90000
 2061,'VERNON 1 0  ', 161.0000,1,   2,  10,   1,1.00122130,  15.028612, 1.10000, 0.90000, 1.10000, 0.90000
 2062,'VERNON 1 1  ',  18.0000,2,   2,  10,   1,1.01367223,  17.355413, 1.10000, 0.90000, 1.10000, 0.90000
 2063,'DENISON 2 0 ', 161.0000,1,   2,  11,   1,1.02981842, -30.876393, 1.10000, 0.90000, 1.10000, 0.90000
 2064,'SUMNER 0    ', 161.0000,1,   2,  11,   1,1.02842462, -28.994027, 1.10000, 0.90000, 1.10000, 0.90000
 2065,'GAINESVILL~1', 161.0000,2,   2,  11,   1,1.00528872, -20.818540, 1.10000, 0.90000, 1.10000, 0.90000
 2066,'ASPERMONT 0 ', 161.0000,1,   2,  10,   1,0.98469555,  23.895285, 1.10000, 0.90000, 1.10000, 0.90000
 2067,'WICHITA F~11', 161.0000,1,   2,  11,   1,0.97802097,  -4.979164, 1.10000, 0.90000, 1.10000, 0.90000
 2068,'WINDTHORST 0', 161.0000,1,   2,  11,   1,0.99094903,  -4.392048, 1.10000, 0.90000, 1.10000, 0.90000
 2069,'HOWE 0      ', 161.0000,1,   2,  11,   1,1.03000009, -30.884886, 1.10000, 0.90000, 1.10000, 0.90000
 2070,'ARCHER 2 0  ', 161.0000,1,   2,  11,   1,0.99418539,  -4.541877, 1.10000, 0.90000, 1.10000, 0.90000
 2071,'ARCHER 2 1  ',  18.0000,2,   2,  11,   1,1.00000012,  -0.846924, 1.10000, 0.90000, 1.10000, 0.90000
 2072,'COLLINSVIL~1', 161.0000,1,   2,  11,   1,1.02597392, -29.937990, 1.10000, 0.90000, 1.10000, 0.90000
 2073,'JAYTON 0    ', 161.0000,1,   2,  10,   1,0.99063683,  16.682428, 1.10000, 0.90000, 1.10000, 0.90000
 2074,'JAYTON 1    ', 115.0000,1,   2,  10,   1,0.99297559,  19.573051, 1.10000, 0.90000, 1.10000, 0.90000
 2075,'JAYTON 2    ', 115.0000,1,   2,  10,   1,0.99297559,  19.573051, 1.10000, 0.90000, 1.10000, 0.90000
 2076,'JAYTON 3    ',  24.0000,2,   2,  10,   1,0.99602419,  17.634995, 1.10000, 0.90000, 1.10000, 0.90000
 2077,'MUENSTER 1 0', 161.0000,1,   2,  11,   1,1.01628077, -16.556993, 1.10000, 0.90000, 1.10000, 0.90000
 2078,'MUENSTER 1 1',  13.8000,2,   2,  11,   1,1.02000010, -13.231540, 1.10000, 0.90000, 1.10000, 0.90000
 2079,'PADUCAH 0   ', 161.0000,1,   2,  10,   1,1.00141728,  23.625314, 1.10000, 0.90000, 1.10000, 0.90000
 2080,'NOCONA 0    ', 161.0000,1,   2,  11,   1,1.00035918, -13.134714, 1.10000, 0.90000, 1.10000, 0.90000
 2081,'DODD CITY 0 ', 161.0000,2,   2,  11,   1,1.02776110, -28.608517, 1.10000, 0.90000, 1.10000, 0.90000
 2082,'WICHITA FA~5', 161.0000,1,   2,  11,   1,0.98451829,  -2.072586, 1.10000, 0.90000, 1.10000, 0.90000
 2083,'WICHITA FA~6',  20.0000,1,   2,  11,   1,0.98451829,  -2.072586, 1.10000, 0.90000, 1.10000, 0.90000
 2084,'WICHITA FA~7',  20.0000,1,   2,  11,   1,0.98451829,  -2.072586, 1.10000, 0.90000, 1.10000, 0.90000
 2085,'WICHITA FA~8',  20.0000,1,   2,  11,   1,0.98451829,  -2.072586, 1.10000, 0.90000, 1.10000, 0.90000
 2086,'MONTAGUE 0  ', 161.0000,1,   2,  11,   1,0.99509639, -16.197397, 1.10000, 0.90000, 1.10000, 0.90000
 2087,'SPUR 0      ', 161.0000,2,   2,  10,   1,1.00140357,  24.217981, 1.10000, 0.90000, 1.10000, 0.90000
 2088,'ARCHER 1 0  ', 161.0000,1,   2,  11,   1,0.99275124,  -4.300661, 1.10000, 0.90000, 1.10000, 0.90000
 2089,'ARCHER 1 1  ',  24.0000,2,   2,  11,   1,1.00000012,  -0.680009, 1.10000, 0.90000, 1.10000, 0.90000
 2090,'ANNONA 0    ', 161.0000,1,   2,  11,   1,1.03005922, -29.323109, 1.10000, 0.90000, 1.10000, 0.90000
 2091,'SEYMOUR 0   ', 161.0000,2,   2,  10,   1,1.00000012,  30.710057, 1.10000, 0.90000, 1.10000, 0.90000
 2092,'DENISON 1 0 ', 161.0000,1,   2,  11,   1,1.02851403, -30.172695, 1.10000, 0.90000, 1.10000, 0.90000
 2093,'PANHANDLE~10', 161.0000,2,   2,  10,   1,1.00000012,  19.007561, 1.10000, 0.90000, 1.10000, 0.90000
 2094,'PANHANDLE~11',  13.8000,2,   2,  10,   1,1.00000012,  19.444217, 1.10000, 0.90000, 1.10000, 0.90000
 2095,'PANHANDLE~12',  13.8000,2,   2,  10,   1,1.00000012,  19.223163, 1.10000, 0.90000, 1.10000, 0.90000
 2096,'RALLS 1 0   ', 500.0000,1,   2,  10,   1,1.02133107,  10.629079, 1.10000, 0.90000, 1.10000, 0.90000
 2097,'RALLS 1 1   ', 230.0000,1,   2,  10,   1,1.01043510,  13.334801, 1.10000, 0.90000, 1.10000, 0.90000
 2098,'RALLS 1 2   ', 161.0000,1,   2,  10,   1,0.97896755,  22.218641, 1.10000, 0.90000, 1.10000, 0.90000
 2099,'RALLS 1 3   ',  18.0000,2,   2,  10,   1,1.02085948,  10.772620, 1.10000, 0.90000, 1.10000, 0.90000
 2100,'RALLS 1 4   ',  18.0000,2,   2,  10,   1,1.02000010,  13.251441, 1.10000, 0.90000, 1.10000, 0.90000
 2101,'SHERMAN 1 0 ', 500.0000,1,   2,  11,   1,1.02655518, -28.418021, 1.10000, 0.90000, 1.10000, 0.90000
 2102,'SHERMAN 1 1 ', 161.0000,1,   2,  11,   1,1.02116835, -28.374527, 1.10000, 0.90000, 1.10000, 0.90000
 2103,'SHERMAN 1 2 ',  20.0000,1,   2,  11,   1,1.02655518, -28.418021, 1.10000, 0.90000, 1.10000, 0.90000
 2104,'SHERMAN 1 3 ',  20.0000,1,   2,  11,   1,1.02655518, -28.418021, 1.10000, 0.90000, 1.10000, 0.90000
 2105,'SHERMAN 1 4 ',  20.0000,1,   2,  11,   1,1.02655518, -28.418021, 1.10000, 0.90000, 1.10000, 0.90000
 2106,'WHITEWRIGH~1', 161.0000,1,   2,  11,   1,1.01600444, -30.211494, 1.10000, 0.90000, 1.10000, 0.90000
 2107,'SHERMAN 2 0 ', 161.0000,1,   2,  11,   1,1.01697183, -28.623188, 1.10000, 0.90000, 1.10000, 0.90000
 2108,'ROCHESTER 0 ', 161.0000,1,   2,  10,   1,0.99581939,   8.467025, 1.10000, 0.90000, 1.10000, 0.90000
 2109,'BURKBURNET~1', 161.0000,2,   2,  11,   1,1.00000012,  -0.850382, 1.10000, 0.90000, 1.10000, 0.90000
...
0 / END OF BUS DATA, BEGIN LOAD DATA
@!   I,'ID',STAT,AREA,ZONE,      PL,        QL,        IP,        IQ,        YP,        YQ, OWNER,SCALE,INTRPT,  DGENP,     DGENQ, DGENM
 1001,'1 ',1,   1,   9,    10.037,     5.888,     0.000,     0.000,     0.000,     0.000,   1,1, 0,     0.000,     0.000, 1
 1002,'1 ',1,   1,   9,     7.445,     4.367,     0.000,     0.000,     0.000,     0.000,   1,1, 0,     0.000,     0.000, 1
 1007,'1 ',1,   1,   9,     3.385,     1.986,     0.000,     0.000,     0.000,     0.000,   1,1, 0,     0.000,     0.000, 1
 1012,'1 ',1,   1,   9,     1.442,     0.846,     0.000,     0.000,     0.000,     0.000,   1,1, 0,     0.000,     0.000, 1
 1013,'1 ',1,   1,   9,     0.246,     0.144,     0.000,     0.000,     0.000,     0.000,   1,1, 0,     0.000,     0.000, 1
 1013,'2 ',1,   1,   9,     0.733,     0.430,     0.000,     0.000,     0.000,     0.000,   1,1, 0,     0.000,     0.000, 1
 1013,'3 ',1,   1,   9,    13.137,     7.706,     0.000,     0.000,     0.000,     0.000,   1,1, 0,     0.000,     0.000, 1
 1014,'1 ',1,   1,   9,     1.072,     0.629,     0.000,     0.000,     0.000,     0.000,   1,1, 0,     0.000,     0.000, 1
 1015,'1 ',1,   1,   9,     3.627,     2.128,     0.000,     0.000,     0.000,     0.000,   1,1, 0,     0.000,     0.000, 1
 1016,'1 ',1,   1,   9,     1.395,     0.819,     0.000,     0.000,     0.000,     0.000,   1,1, 0,     0.000,     0.000, 1
 1017,'1 ',1,   1,   9,     8.861,     5.198,     0.000,     0.000,     0.000,     0.000,   1,1, 0,     0.000,     0.000, 1
 1018,'1 ',1,   1,   9,     0.033,     0.020,     0.000,     0.000,     0.000,     0.000,   1,1, 0,     0.000,     0.000, 1
 1019,'1 ',1,   1,   9,    29.838,    17.503,     0.000,     0.000,     0.000,     0.000,   1,1, 0,     0.000,     0.000, 1
 1024,'1 ',1,   1,   9,    30.448,    17.861,     0.000,     0.000,     0.000,     0.000,   1,1, 0,     0.000,     0.000, 1
 1027,'1 ',1,   1,   9,     0.291,     0.171,     0.000,     0.000,     0.000,     0.000,   1,1, 0,     0.000,     0.000, 1
 1027,'2 ',1,   1,   9,    48.594,    28.506,     0.000,     0.000,     0.000,     0.000,   1,1, 0,     0.000,     0.000, 1
 1028,'1 ',1,   1,   9,     0.688,     0.404,     0.000,     0.000,     0.000,     0.000,   1,1, 0,     0.000,     0.000, 1
 1028,'2 ',1,   1,   9,     0.364,     0.213,     0.000,     0.000,     0.000,     0.000,   1,1, 0,     0.000,     0.000, 1
 1028,'3 ',1,   1,   9,     2.366,     1.388,     0.000,     0.000,     0.000,     0.000,   1,1, 0,     0.000,     0.000, 1
 1028,'4 ',1,   1,   9,     1.419,     0.832,     0.000,     0.000,     0.000,     0.000,   1,1, 0,     0.000,     0.000, 1
 1029,'1 ',1,   1,   9,    40.178,    23.569,     0.000,     0.000,     0.000,     0.000,   1,1, 0,     0.000,     0.000, 1
 1030,'1 ',1,   1,   9,    11.131,     6.530,     0.000,     0.000,     0.000,     0.000,   1,1, 0,     0.000,     0.000, 1
 1030,'2 ',1,   1,   9,     0.764,     0.448,     0.000,     0.000,     0.000,     0.000,   1,1, 0,     0.000,     0.000, 1
 1031,'1 ',1,   1,   9,     4.466,     2.620,     0.000,     0.000,     0.000,     0.000,   1,1, 0,     0.000,     0.000, 1
 1036,'1 ',1,   1,   9,     0.491,     0.288,     0.000,     0.000,     0.000,     0.000,   1,1, 0,     0.000,     0.000, 1
 1036,'2 ',1,   1,   9,     6.076,     3.564,     0.000,     0.000,     0.000,     0.000,   1,1, 0,     0.000,     0.000, 1
 1037,'1 ',1,   1,   9,    49.380,    28.967,     0.000,     0.000,     0.000,     0.000,   1,1, 0,     0.000,     0.000, 1
 1040,'1 ',1,   1,   9,    21.425,    12.568,     0.000,     0.000,     0.000,     0.000,   1,1, 0,     0.000,     0.000, 1
 1044,'1 ',1,   1,   9,     2.179,     1.278,     0.000,     0.000,     0.000,     0.000,   1,1, 0,     0.000,     0.000, 1
 1044,'2 ',1,   1,   9,     4.912,     2.881,     0.000,     0.000,     0.000,     0.000,   1,1, 0,     0.000,     0.000, 1
 1045,'1 ',1,   1,   9,    47.605,    27.926,     0.000,     0.000,     0.000,     0.000,   1,1, 0,     0.000,     0.000, 1
 1046,'1 ',1,   1,   9,     0.003,     0.002,     0.000,     0.000,     0.000,     0.000,   1,1, 0,     0.000,     0.000, 1
 1046,'2 ',1,   1,   9,     5.351,     3.139,     0.000,     0.000,     0.000,     0.000,   1,1, 0,     0.000,     0.000, 1
 1054,'1 ',1,   1,   9,     0.858,     0.503,     0.000,     0.000,     0.000,     0.000,   1,1, 0,     0.000,     0.000, 1
 1054,'2 ',1,   1,   9,     0.251,     0.147,     0.000,     0.000,     0.000,     0.000,   1,1, 0,     0.000,     0.000, 1
 1054,'3 ',1,   1,   9,     6.131,     3.596,     0.000,     0.000,     0.000,     0.000,   1,1, 0,     0.000,     0.000, 1
 1055,'1 ',1,   1,   9,     1.921,     1.127,     0.000,     0.000,     0.000,     0.000,   1,1, 0,     0.000,     0.000, 1
 1058,'1 ',1,   1,   9,     1.974,     1.158,     0.000,     0.000,     0.000,     0.000,   1,1, 0,     0.000,     0.000, 1
 1058,'2 ',1,   1,   9,     4.525,     2.655,     0.000,     0.000,     0.000,     0.000,   1,1, 0,     0.000,     0.000, 1
 1064,'1 ',1,   1,   9,     3.183,     1.867,     0.000,     0.000,     0.000,     0.000,   1,1, 0,     0.000,     0.000, 1
 1064,'2 ',1,   1,   9,    56.592,    33.198,     0.000,     0.000,     0.000,     0.000,   1,1, 0,     0.000,     0.000, 1
 1067,'1 ',1,   1,   9,    49.049,    28.773,     0.000,     0.000,     0.000,     0.000,   1,1, 0,     0.000,     0.000, 1
 1068,'1 ',1,   1,   9,     0.333,     0.195,     0.000,     0.000,     0.000,     0.000,   1,1, 0,     0.000,     0.000, 1
 1068,'2 ',1,   1,   9,    28.358,    16.635,     0.000,     0.000,     0.000,     0.000,   1,1, 0,     0.000,     0.000, 1
 1071,'1 ',1,   1,   9,    44.177,    25.915,     0.000,     0.000,     0.000,     0.000,   1,1, 0,     0.000,     0.000, 1
 1083,'1 ',1,   1,   9,    19.293,    11.318,     0.000,     0.000,     0.000,     0.000,   1,1, 0,     0.000,     0.000, 1
 1085,'1 ',1,   1,   9,     1.411,     0.828,     0.000,     0.000,     0.000,     0.000,   1,1, 0,     0.000,     0.000, 1
 1085,'2 ',1,   1,   9,     8.875,     5.206,     0.000,     0.000,     0.000,     0.000,   1,1, 0,     0.000,     0.000, 1
 1086,'1 ',1,   1,   9,    19.162,    11.240,     0.000,     0.000,     0.000,     0.000,   1,1, 0,     0.000,     0.000, 1
 1087,'1 ',1,   1,   9,     0.439,     0.258,     0.000,     0.000,     0.000,     0.000,   1,1, 0,     0.000,     0.000, 1
 1089,'1 ',1,   1,   9,     0.401,     0.235,     0.000,     0.000,     0.000,     0.000,   1,1, 0,     0.000,     0.000, 1
 1089,'2 ',1,   1,   9,    19.211,    11.269,     0.000,     0.000,     0.000,     0.000,   1,1, 0,     0.000,     0.000, 1
 1091,'1 ',1,   1,   9,     2.276,     1.335,     0.000,     0.000,     0.000,     0.000,   1,1, 0,     0.000,     0.000, 1
 1091,'2 ',1,   1,   9,     3.337,     1.958,     0.000,     0.000,     0.000,     0.000,   1,1, 0,     0.000,     0.000, 1
 2001,'1 ',1,   2,  11,     6.910,     4.054,     0.000,     0.000,     0.000,     0.000,   1,1, 0,     0.000,     0.000, 1
 2001,'2 ',1,   2,  11,    16.446,     9.647,     0.000,     0.000,     0.000,     0.000,   1,1, 0,     0.000,     0.000, 1
 2007,'1 ',1,   2,  11,     4.608,     2.703,     0.000,     0.000,     0.000,     0.000,   1,1, 0,     0.000,     0.000, 1
 2008,'1 ',1,   2,  10,     3.893,     2.284,     0.000,     0.000,     0.000,     0.000,   1,1, 0,     0.000,     0.000, 1
 2009,'1 ',1,   2,  11,    18.902,    11.088,     0.000,     0.000,     0.000,     0.000,   1,1, 0,     0.000,     0.000, 1
 2010,'1 ',1,   2,  10,     2.466,     1.447,     0.000,     0.000,     0.000,     0.000,   1,1, 0,     0.000,     0.000, 1
 2010,'2 ',1,   2,  10,     4.640,     2.722,     0.000,     0.000,     0.000,     0.000,   1,1, 0,     0.000,     0.000, 1
 2010,'3 ',1,   2,  10,     1.414,     0.830,     0.000,     0.000,     0.000,     0.000,   1,1, 0,     0.000,     0.000, 1
 2010,'4 ',1,   2,  10,     0.093,     0.054,     0.000,     0.000,     0.000,     0.000,   1,1, 0,     0.000,     0.000, 1
 2010,'5 ',1,   2,  10,    18.824,    11.042,     0.000,     0.000,     0.000,     0.000,   1,1, 0,     0.000,     0.000, 1
 2014,'1 ',1,   2,  10,     1.750,     1.027,     0.000,     0.000,     0.000,     0.000,   1,1, 0,     0.000,     0.000, 1
 2014,'2 ',1,   2,  10,    10.531,     6.178,     0.000,     0.000,     0.000,     0.000,   1,1, 0,     0.000,     0.000, 1
 2015,'1 ',1,   2,  11,     2.263,     1.328,     0.000,     0.000,     0.000,     0.000,   1,1, 0,     0.000,     0.000, 1
 2016,'1 ',1,   2,  11,    33.456,    19.626,     0.000,     0.000,     0.000,     0.000,   1,1, 0,     0.000,     0.000, 1
 2020,'1 ',1,   2,  11,    23.171,    13.592,     0.000,     0.000,     0.000,     0.000,   1,1, 0,     0.000,     0.000, 1
 2022,'1 ',1,   2,  11,     5.586,     3.277,     0.000,     0.000,     0.000,     0.000,   1,1, 0,     0.000,     0.000, 1
 2025,'1 ',1,   2,  11,    19.135,    11.225,     0.000,     0.000,     0.000,     0.000,   1,1, 0,     0.000,     0.000, 1
 2026,'1 ',1,   2,  10,     1.213,     0.711,     0.000,     0.000,     0.000,     0.000,   1,1, 0,     0.000,     0.000, 1
 2026,'2 ',1,   2,  10,     0.458,     0.269,     0.000,     0.000,     0.000,     0.000,   1,1, 0,     0.000,     0.000, 1
 2026,'3 ',1,   2,  10,     3.465,     2.032,     0.000,     0.000,     0.000,     0.000,   1,1, 0,     0.000,     0.000, 1
 2026,'4 ',1,   2,  10,     3.834,     2.249,     0.000,     0.000,     0.000,     0.000,   1,1, 0,     0.000,     0.000, 1
 2027,'1 ',1,   2,  11,     1.717,     1.007,     0.000,     0.000,     0.000,     0.000,   1,1, 0,     0.000,     0.000, 1
 2028,'1 ',1,   2,  11,     6.877,     4.034,     0.000,     0.000,     0.000,     0.000,   1,1, 0,     0.000,     0.000, 1
 2029,'1 ',1,   2,  10,     1.546,     0.907,     0.000,     0.000,     0.000,     0.000,   1,1, 0,     0.000,     0.000, 1
 2030,'1 ',1,   2,  11,     1.889,     1.108,     0.000,     0.000,     0.000,     0.000,   1,1, 0,     0.000,     0.000, 1
 2030,'2 ',1,   2,  11,    20.882,    12.249,     0.000,     0.000,     0.000,     0.000,   1,1, 0,     0.000,     0.000, 1
 2031,'1 ',1,   2,  10,     0.380,     0.223,     0.000,     0.000,     0.000,     0.000,   1,1, 0,     0.000,     0.000, 1
 2031,'2 ',1,   2,  10,     0.614,     0.360,     0.000,     0.000,     0.000,     0.000,   1,1, 0,     0.000,     0.000, 1
 2031,'3 ',1,   2,  10,     1.791,     1.051,     0.000,     0.000,     0.000,     0.000,   1,1, 0,     0.000,     0.000, 1
 2032,'1 ',1,   2,  11,     1.620,     0.950,     0.000,     0.000,     0.000,     0.000,   1,1, 0,     0.000,     0.000, 1
 2033,'1 ',1,   2,  11,     0.629,     0.369,     0.000,     0.000,     0.000,     0.000,   1,1, 0,     0.000,     0.000, 1
 2033,'2 ',1,   2,  11,     5.926,     3.477,     0.000,     0.000,     0.000,     0.000,   1,1, 0,     0.000,     0.000, 1
 2034,'1 ',1,   2,  11,     2.579,     1.513,     0.000,     0.000,     0.000,     0.000,   1,1, 0,     0.000,     0.000, 1
 2035,'1 ',1,   2,  10,     2.004,     1.176,     0.000,     0.000,     0.000,     0.000,   1,1, 0,     0.000,     0.000, 1
 2035,'2 ',1,   2,  10,     0.258,     0.151,     0.000,     0.000,     0.000,     0.000,   1,1, 0,     0.000,     0.000, 1
 2036,'1 ',1,   2,  11,    20.086,    11.783,     0.000,     0.000,     0.000,     0.000,   1,1, 0,     0.000,     0.000, 1
 2037,'1 ',1,   2,  11,     0.333,     0.195,     0.000,     0.000,     0.000,     0.000,   1,1, 0,     0.000,     0.000, 1
 2037,'2 ',1,   2,  11,     1.358,     0.796,     0.000,     0.000,     0.000,     0.000,   1,1, 0,     0.000,     0.000, 1
 2038,'1 ',1,   2,  11,     1.258,     0.738,     0.000,     0.000,     0.000,     0.000,   1,1, 0,     0.000,     0.000, 1
 2039,'1 ',1,   2,  11,     2.685,     1.575,     0.000,     0.000,     0.000,     0.000,   1,1, 0,     0.000,     0.000, 1
 2040,'1 ',1,   2,  11,     7.681,     4.506,     0.000,     0.000,     0.000,     0.000,   1,1, 0,     0.000,     0.000, 1
 2043,'1 ',1,   2,  11,     2.046,     1.200,     0.000,     0.000,     0.000,     0.000,   1,1, 0,     0.000,     0.000, 1
 2044,'1 ',1,   2,  11,    13.237,     7.765,     0.000,     0.000,     0.000,     0.000,   1,1, 0,     0.000,     0.000, 1
 2045,'1 ',1,   2,  11,    10.918,     6.405,     0.000,     0.000,     0.000,     0.000,   1,1, 0,     0.000,     0.000, 1
 2046,'1 ',1,   2,  11,    10.691,     6.271,     0.000,     0.000,     0.000,     0.000,   1,1, 0,     0.000,     0.000, 1
 2047,'1 ',1,   2,  11,     4.544,     2.666,     0.000,     0.000,     0.000,     0.000,   1,1, 0,     0.000,     0.000, 1
 2047,'2 ',1,   2,  11,     2.679,     1.572,     0.000,     0.000,     0.000,     0.000,   1,1, 0,     0.000,     0.000, 1
 2048,'1 ',1,   2,  10,     3.099,     1.818,     0.000,     0.000,     0.000,     0.000,   1,1, 0,     0.000,     0.000, 1
 2049,'1 ',1,   2,  10,     0.235,     0.138,     0.000,     0.000,     0.000,     0.000,   1,1, 0,     0.000,     0.000, 1
 2049,'2 ',1,   2,  10,     0.280,     0.164,     0.000,     0.000,     0.000,     0.000,   1,1, 0,     0.000,     0.000, 1
 2049,'3 ',1,   2,  10,     5.074,     2.977,     0.000,     0.000,     0.000,     0.000,   1,1, 0,     0.000,     0.000, 1
 2050,'1 ',1,   2,  11,     1.766,     1.036,     0.000,     0.000,     0.000,     0.000,   1,1, 0,     0.000,     0.000, 1
 2051,'1 ',1,   2,  11,     8.622,     5.057,     0.000,     0.000,     0.000,     0.000,   1,1, 0,     0.000,     0.000, 1
 2052,'1 ',1,   2,  10,     4.569,     2.680,     0.000,     0.000,     0.000,     0.000,   1,1, 0,     0.000,     0.000, 1
 2052,'2 ',1,   2,  10,     7.428,     4.357,     0.000,     0.000,     0.000,     0.000,   1,1, 0,     0.000,     0.000, 1
 2053,'1 ',1,   2,  11,    14.071,     8.254,     0.000,     0.000,     0.000,     0.000,   1,1, 0,     0.000,     0.000, 1
 2055,'1 ',1,   2,  11,    23.966,    14.059,     0.000,     0.000,     0.000,     0.000,   1,1, 0,     0.000,     0.000, 1
 2060,'1 ',1,   2,  11,     1.833,     1.075,     0.000,     0.000,     0.000,     0.000,   1,1, 0,     0.000,     0.000, 1
 2063,'1 ',1,   2,  11,    31.693,    18.591,     0.000,     0.000,     0.000,     0.000,   1,1, 0,     0.000,     0.000, 1
 2064,'1 ',1,   2,  11,     3.399,     1.994,     0.000,     0.000,     0.000,     0.000,   1,1, 0,     0.000,     0.000, 1
 2064,'2 ',1,   2,  11,     1.453,     0.853,     0.000,     0.000,     0.000,     0.000,   1,1, 0,     0.000,     0.000, 1
 2065,'1 ',1,   2,  11,    37.848,    22.202,     0.000,     0.000,     0.000,     0.000,   1,1, 0,     0.000,     0.000, 1
 2066,'1 ',1,   2,  10,     1.956,     1.147,     0.000,     0.000,     0.000,     0.000,   1,1, 0,     0.000,     0.000, 1
 2066,'2 ',1,   2,  10,     1.227,     0.720,     0.000,     0.000,     0.000,     0.000,   1,1, 0,     0.000,     0.000, 1
 2066,'3 ',1,   2,  10,     0.252,     0.148,     0.000,     0.000,     0.000,     0.000,   1,1, 0,     0.000,     0.000, 1
 2067,'1 ',1,   2,  11,    26.066,    15.291,     0.000,     0.000,     0.000,     0.000,   1,1, 0,     0.000,     0.000, 1
 2068,'1 ',1,   2,  11,     2.782,     1.632,     0.000,     0.000,     0.000,     0.000,   1,1, 0,     0.000,     0.000, 1
 2069,'1 ',1,   2,  11,    10.589,     6.212,     0.000,     0.000,     0.000,     0.000,   1,1, 0,     0.000,     0.000, 1
 2072,'1 ',1,   2,  11,     4.688,     2.750,     0.000,     0.000,     0.000,     0.000,   1,1, 0,     0.000,     0.000, 1
 2079,'1 ',1,   2,  10,     2.163,     1.269,     0.000,     0.000,     0.000,     0.000,   1,1, 0,     0.000,     0.000, 1
 2080,'1 ',1,   2,  11,     8.178,     4.797,     0.000,     0.000,     0.000,     0.000,   1,1, 0,     0.000,     0.000, 1
 2081,'1 ',1,   2,  11,     2.156,     1.265,     0.000,     0.000,     0.000,     0.000,   1,1, 0,     0.000,     0.000, 1
 2082,'1 ',1,   2,  11,    28.512,    16.725,     0.000,     0.000,     0.000,     0.000,   1,1, 0,     0.000,     0.000, 1
 2086,'1 ',1,   2,  11,     1.059,     0.621,     0.000,     0.000,     0.000,     0.000,   1,1, 0,     0.000,     0.000, 1
 2087,'1 ',1,   2,  10,     3.814,     2.237,     0.000,     0.000,     0.000,     0.000,   1,1, 0,     0.000,     0.000, 1
 2090,'1 ',1,   2,  11,     1.171,     0.687,     0.000,     0.000,     0.000,     0.000,   1,1, 0,     0.000,     0.000, 1
 2091,'1 ',1,   2,  10,     8.233,     4.830,     0.000,     0.000,     0.000,     0.000,   1,1, 0,     0.000,     0.000, 1
 2092,'1 ',1,   2,  11,    11.644,     6.831,     0.000,     0.000,     0.000,     0.000,   1,1, 0,     0.000,     0.000, 1
 2106,'1 ',1,   2,  11,     6.957,     4.081,     0.000,     0.000,     0.000,     0.000,   1,1, 0,     0.000,     0.000, 1
 2107,'1 ',1,   2,  11,    35.815,    21.009,     0.000,     0.000,     0.000,     0.000,   1,1, 0,     0.000,     0.000, 1
 2108,'1 ',1,   2,  10,     1.036,     0.608,     0.000,     0.000,     0.000,     0.000,   1,1, 0,     0.000,     0.000, 1
 2109,'1 ',1,   2,  11,    16.330,     9.579,     0.000,     0.000,     0.000,     0.000,   1,1, 0,     0.000,     0.000, 1
 2110,'1 ',1,   2,  11,     4.148,     2.434,     0.000,     0.000,     0.000,     0.000,   1,1, 0,     0.000,     0.000, 1
 2111,'1 ',1,   2,  11,     3.382,     1.984,     0.000,     0.000,     0.000,     0.000,   1,1, 0,     0.000,     0.000, 1
 2111,'2 ',1,   2,  11,     3.357,     1.969,     0.000,     0.000,     0.000,     0.000,   1,1, 0,     0.000,     0.000, 1
 2112,'1 ',1,   2,  11,     2.194,     1.287,     0.000,     0.000,     0.000,     0.000,   1,1, 0,     0.000,     0.000, 1
 2114,'1 ',1,   2,  11,    34.185,    20.053,     0.000,     0.000,     0.000,     0.000,   1,1, 0,     0.000,     0.000, 1
 2121,'1 ',1,   2,  11,     1.127,     0.661,     0.000,     0.000,     0.000,     0.000,   1,1, 0,     0.000,     0.000, 1
 2122,'1 ',1,   2,  11,     3.247,     1.905,     0.000,     0.000,     0.000,     0.000,   1,1, 0,     0.000,     0.000, 1
 2124,'1 ',1,   2,  11,    10.281,     6.031,     0.000,     0.000,     0.000,     0.000,   1,1, 0,     0.000,     0.000, 1
 2125,'1 ',1,   2,  11,     1.959,     1.149,     0.000,     0.000,     0.000,     0.000,   1,1, 0,     0.000,     0.000, 1
 2126,'1 ',1,   2,  11,     6.876,     4.033,     0.000,     0.000,     0.000,     0.000,   1,1, 0,     0.000,     0.000, 1
 2129,'1 ',1,   2,  11,     3.204,     1.879,     0.000,     0.000,     0.000,     0.000,   1,1, 0,     0.000,     0.000, 1
 2132,'1 ',1,   2,  10,     5.767,     3.383,     0.000,     0.000,     0.000,     0.000,   1,1, 0,     0.000,     0.000, 1
 2133,'1 ',1,   2,  11,     2.743,     1.609,     0.000,     0.000,     0.000,     0.000,   1,1, 0,     0.000,     0.000, 1
 3002,'1 ',1,   3,  28,    54.511,    31.977,     0.000,     0.000,     0.000,     0.000,   1,1, 0,     0.000,     0.000, 1
 3005,'1 ',1,   3,  28,     0.383,     0.224,     0.000,     0.000,     0.000,     0.000,   1,1, 0,     0.000,     0.000, 1
 3005,'2 ',1,   3,  28,     0.398,     0.234,     0.000,     0.000,     0.000,     0.000,   1,1, 0,     0.000,     0.000, 1
 3005,'3 ',1,   3,  28,     2.765,     1.622,     0.000,     0.000,     0.000,     0.000,   1,1, 0,     0.000,     0.000, 1
 3006,'1 ',1,   3,  27,     3.549,     2.082,     0.000,     0.000,     0.000,     0.000,   1,1, 0,     0.000,     0.000, 1
 3007,'1 ',1,   3,  27,     7.228,     4.240,     0.000,     0.000,     0.000,     0.000,   1,1, 0,     0.000,     0.000, 1
 3008,'1 ',1,   3,  27,     9.175,     5.382,     0.000,     0.000,     0.000,     0.000,   1,1, 0,     0.000,     0.000, 1
 3008,'2 ',1,   3,  27,     0.393,     0.230,     0.000,     0.000,     0.000,     0.000,   1,1, 0,     0.000,     0.000, 1
 3009,'1 ',1,   3,  28,     6.057,     3.553,     0.000,     0.000,     0.000,     0.000,   1,1, 0,     0.000,     0.000, 1
 3010,'1 ',1,   3,  28,     2.256,     1.323,     0.000,     0.000,     0.000,     0.000,   1,1, 0,     0.000,     0.000, 1
 3011,'1 ',1,   3,  28,     9.168,     5.378,     0.000,     0.000,     0.000,     0.000,   1,1, 0,     0.000,     0.000, 1
 3011,'2 ',1,   3,  28,     3.940,     2.311,     0.000,     0.000,     0.000,     0.000,   1,1, 0,     0.000,     0.000, 1
 3012,'1 ',1,   3,  28,     0.272,     0.160,     0.000,     0.000,     0.000,     0.000,   1,1, 0,     0.000,     0.000, 1
 3013,'1 ',1,   3,  27,    31.181,    18.291,     0.000,     0.000,     0.000,     0.000,   1,1, 0,     0.000,     0.000, 1
 3014,'1 ',1,   3,  28,    10.627,     6.234,     0.000,     0.000,     0.000,     0.000,   1,1, 0,     0.000,     0.000, 1
 3015,'1 ',1,   3,  27,     2.591,     1.520,     0.000,     0.000,     0.000,     0.000,   1,1, 0,     0.000,     0.000, 1
 3021,'1 ',1,   3,  27,     0.254,     0.149,     0.000,     0.000,     0.000,     0.000,   1,1, 0,     0.000,     0.000, 1
 3021,'2 ',1,   3,  27,     0.684,     0.401,     0.000,     0.000,     0.000,     0.000,   1,1, 0,     0.000,     0.000, 1
 3022,'1 ',1,   3,  27,    11.877,     6.967,     0.000,     0.000,     0.000,     0.000,   1,1, 0,     0.000,     0.000, 1
 3023,'1 ',1,   3,  27,     5.027,     2.949,     0.000,     0.000,     0.000,     0.000,   1,1, 0,     0.000,     0.000, 1
 3024,'1 ',1,   3,  28,     4.893,     2.870,     0.000,     0.000,     0.000,     0.000,   1,1, 0,     0.000,     0.000, 1
 3025,'1 ',1,   3,  28,     6.605,     3.874,     0.000,     0.000,     0.000,     0.000,   1,1, 0,     0.000,     0.000, 1
 3029,'1 ',1,   3,  28,     2.350,     1.379,     0.000,     0.000,     0.000,     0.000,   1,1, 0,     0.000,     0.000, 1
 3030,'1 ',1,   3,  27,    62.655,    36.754,     0.000,     0.000,     0.000,     0.000,   1,1, 0,     0.000,     0.000, 1
 3031,'1 ',1,   3,  27,     7.116,     4.174,     0.000,     0.000,     0.000,     0.000,   1,1, 0,     0.000,     0.000, 1
 3032,'1 ',1,   3,  27,    35.193,    20.645,     0.000,     0.000,     0.000,     0.000,   1,1, 0,     0.000,     0.000, 1
 3035,'1 ',1,   3,  28,     1.674,     0.982,     0.000,     0.000,     0.000,     0.000,   1,1, 0,     0.000,     0.000, 1
 3036,'1 ',1,   3,  28,     0.627,     0.368,     0.000,     0.000,     0.000,     0.000,   1,1, 0,     0.000,     0.000, 1
 3036,'2 ',1,   3,  28,     2.175,     1.276,     0.000,     0.000,     0.000,     0.000,   1,1, 0,     0.000,     0.000, 1
 3040,'1 ',1,   3,  27,     7.055,     4.139,     0.000,     0.000,     0.000,     0.000,   1,1, 0,     0.000,     0.000, 1
 3042,'1 ',1,   3,  27,     2.423,     1.421,     0.000,     0.000,     0.000,     0.000,   1,1, 0,     0.000,     0.000, 1
 3042,'2 ',1,   3,  27,     1.805,     1.059,     0.000,     0.000,     0.000,     0.000,   1,1, 0,     0.000,     0.000, 1
 3049,'1 ',1,   3,  27,     5.112,     2.999,     0.000,     0.000,     0.000,     0.000,   1,1, 0,     0.000,     0.000, 1
 3051,'1 ',1,   3,  28,     0.407,     0.239,     0.000,     0.000,     0.000,     0.000,   1,1, 0,     0.000,     0.000, 1
 3051,'2 ',1,   3,  28,    69.768,    40.927,     0.000,     0.000,     0.000,     0.000,   1,1, 0,     0.000,     0.000, 1
 3052,'1 ',1,   3,  28,     3.901,     2.288,     0.000,     0.000,     0.000,     0.000,   1,1, 0,     0.000,     0.000, 1
 3066,'1 ',1,   3,  28,    10.643,     6.243,     0.000,     0.000,     0.000,     0.000,   1,1, 0,     0.000,     0.000, 1
 3069,'1 ',1,   3,  27,     1.842,     1.080,     0.000,     0.000,     0.000,     0.000,   1,1, 0,     0.000,     0.000, 1
 3072,'1 ',1,   3,  27,     2.891,     1.696,     0.000,     0.000,     0.000,     0.000,   1,1, 0,     0.000,     0.000, 1
 3075,'1 ',1,   3,  28,     5.884,     3.452,     0.000,     0.000,     0.000,     0.000,   1,1, 0,     0.000,     0.000, 1
 3076,'1 ',1,   3,  28,     5.214,     3.058,     0.000,     0.000,     0.000,     0.000,   1,1, 0,     0.000,     0.000, 1
 3077,'1 ',1,   3,  27,    33.160,    19.452,     0.000,     0.000,     0.000,     0.000,   1,1, 0,     0.000,     0.000, 1
 3093,'1 ',1,   3,  28,     2.437,     1.430,     0.000,     0.000,     0.000,     0.000,   1,1, 0,     0.000,     0.000, 1
 3099,'1 ',1,   3,  27,     5.834,     3.422,     0.000,     0.000,     0.000,     0.000,   1,1, 0,     0.000,     0.000, 1
 3100,'1 ',1,   3,  27,     4.118,     2.416,     0.000,     0.000,     0.000,     0.000,   1,1, 0,     0.000,     0.000, 1
 3101,'1 ',1,   3,  28,     0.051,     0.030,     0.000,     0.000,     0.000,     0.000,   1,1, 0,     0.000,     0.000, 1
 3101,'2 ',1,   3,  28,     1.349,     0.791,     0.000,     0.000,     0.000,     0.000,   1,1, 0,     0.000,     0.000, 1
 3101,'3 ',1,   3,  28,     3.156,     1.851,     0.000,     0.000,     0.000,     0.000,   1,1, 0,     0.000,     0.000, 1
 3102,'1 ',1,   3,  27,    36.348,    21.322,     0.000,     0.000,     0.000,     0.000,   1,1, 0,     0.000,     0.000, 1
 3103,'1 ',1,   3,  27,     0.161,     0.094,     0.000,     0.000,     0.000,     0.000,   1,1, 0,     0.000,     0.000, 1
 3103,'2 ',1,   3,  27,    18.830,    11.046,     0.000,     0.000,     0.000,     0.000,   1,1, 0,     0.000,     0.000, 1
...
0 / END OF LOAD DATA, BEGIN FIXED SHUNT DATA
@!   I,'ID',STATUS,  GL,        BL
  2017,'2 ', 1,     0.000,   -78.817
  2096,'2 ', 1,     0.000,     0.000
  3051,'2 ', 0,     0.000,    80.000
  8005,'1 ', 0,     0.000,   100.000
0 / END OF FIXED SHUNT DATA, BEGIN GENERATOR DATA
@!   I,'ID',      PG,        QG,        QB,     VS,    IREG,     MBASE,     ZR,         ZX,         RT,         XT,     GTAP,STAT, RMPCT,      PT,        PB,    O1,  F1,    O2,  F2,    O3,  F3,    O4,  F4,WMOD,  WPF
 1004,'1 ',   158.250,    19.371,    44.940,   -30.380,1.01000,    0,   253.200,   0.00000,   1.00000,   0.00000,   0.00000,1.00000,1,  100.0,   211.000,    63.300,   1,1.0000,   0,1.0000,   0,1.0000,   0,1.0000,1, 1.0000
 1006,'1 ',    25.730,     1.780,     7.310,    -4.940,1.00000,    0,    41.160,   0.00000,   1.00000,   0.00000,   0.00000,1.00000,1,  100.0,    34.300,    10.290,   1,1.0000,   0,1.0000,   0,1.0000,   0,1.0000,1, 1.0000
 1007,'1 ',   144.396,     0.000,     0.000,     0.000,1.00000,    0,   601.650,   0.00000,   1.00000,   0.00000,   0.00000,1.00000,1,  100.0,   481.320,     0.000,   1,1.0000,   0,1.0000,   0,1.0000,   0,1.0000,1, 1.0000
 1009,'1 ',    61.870,   -11.880,    17.570,   -11.880,1.00000,    0,    99.000,   0.00000,   1.00000,   0.00000,   0.00000,1.00000,1,  100.0,    82.500,    24.750,   1,1.0000,   0,1.0000,   0,1.0000,   0,1.0000,1, 1.0000
 1011,'1 ',    10.000,     0.000,     0.000,     0.000,1.00000,    0,    12.000,   0.00000,   1.00000,   0.00000,   0.00000,1.00000,1,  100.0,    10.000,     3.000,   1,1.0000,   0,1.0000,   0,1.0000,   0,1.0000,1, 1.0000
 1016,'1 ',   292.980,   -45.405,   381.179,  -381.179,1.00000,    0,  1220.750,   0.00000,   1.00000,   0.00000,   0.00000,1.00000,1,  100.0,   976.600,     0.000,   1,1.0000,   0,1.0000,   0,1.0000,   0,1.0000,1, 1.0000
 1016,'2 ',    90.000,   -45.405,   117.094,  -117.094,1.00000,    0,   375.000,   0.00000,   1.00000,   0.00000,   0.00000,1.00000,1,  100.0,   300.000,     0.000,   1,1.0000,   0,1.0000,   0,1.0000,   0,1.0000,1, 1.0000
 1021,'1 ',   149.630,    -2.329,    42.490,   -28.730,1.00000,    0,   239.400,   0.00000,   1.00000,   0.00000,   0.00000,1.00000,1,  100.0,   199.500,    59.850,   1,1.0000,   0,1.0000,   0,1.0000,   0,1.0000,1, 1.0000
 1022,'1 ',    79.860,     0.000,     0.000,     0.000,1.00000,    0,   332.750,   0.00000,   1.00000,   0.00000,   0.00000,1.00000,1,  100.0,   266.200,     0.000,   1,1.0000,   0,1.0000,   0,1.0000,   0,1.0000,1, 1.0000
 1023,'1 ',   135.000,    18.420,    38.340,   -25.920,1.01000,    0,   216.000,   0.00000,   1.00000,   0.00000,   0.00000,1.00000,1,  100.0,   180.000,    54.000,   1,1.0000,   0,1.0000,   0,1.0000,   0,1.0000,1, 1.0000
 1023,'2 ',    79.860,     0.000,     0.000,     0.000,1.01000,    0,   332.750,   0.00000,   1.00000,   0.00000,   0.00000,1.00000,1,  100.0,   266.200,     0.000,   1,1.0000,   0,1.0000,   0,1.0000,   0,1.0000,1, 1.0000
 1026,'1 ',    93.150,     1.601,    26.450,   -17.880,1.00000,    0,   149.040,   0.00000,   1.00000,   0.00000,   0.00000,1.00000,1,  100.0,   124.200,    37.260,   1,1.0000,   0,1.0000,   0,1.0000,   0,1.0000,1, 1.0000
 1027,'1 ',     1.080,    -1.405,     1.405,    -1.405,1.00000,    0,     4.500,   0.00000,   1.00000,   0.00000,   0.00000,1.00000,1,  100.0,     3.600,     0.000,   1,1.0000,   0,1.0000,   0,1.0000,   0,1.0000,1, 1.0000
 1028,'1 ',   169.170,   -52.266,   220.097,  -220.097,1.00000,    0,   704.875,   0.00000,   1.00000,   0.00000,   0.00000,1.00000,1,  100.0,   563.900,     0.000,   1,1.0000,   0,1.0000,   0,1.0000,   0,1.0000,1, 1.0000
 1029,'1 ',    42.090,   -21.535,    54.761,   -54.761,1.00000,    0,   175.375,   0.00000,   1.00000,   0.00000,   0.00000,1.00000,1,  100.0,   140.300,     0.000,   1,1.0000,   0,1.0000,   0,1.0000,   0,1.0000,1, 1.0000
 1030,'1 ',    15.000,     0.000,     0.000,     0.000,1.00000,    0,    62.500,   0.00000,   1.00000,   0.00000,   0.00000,1.00000,1,  100.0,    50.000,     0.000,   1,1.0000,   0,1.0000,   0,1.0000,   0,1.0000,1, 1.0000
 1032,'1 ',   139.425,     0.000,     0.000,     0.000,1.00000,    0,   580.938,   0.00000,   1.00000,   0.00000,   0.00000,1.00000,1,  100.0,   464.750,     0.000,   1,1.0000,   0,1.0000,   0,1.0000,   0,1.0000,1, 1.0000
 1033,'1 ',   208.500,    53.323,    59.210,   -40.030,1.00000,    0,   333.600,   0.00000,   1.00000,   0.00000,   0.00000,1.00000,1,  100.0,   278.000,    83.400,   1,1.0000,   0,1.0000,   0,1.0000,   0,1.0000,1, 1.0000
 1033,'2 ',   139.425,     0.000,     0.000,     0.000,1.00000,    0,   580.938,   0.00000,   1.00000,   0.00000,   0.00000,1.00000,1,  100.0,   464.750,     0.000,   1,1.0000,   0,1.0000,   0,1.0000,   0,1.0000,1, 1.0000
 1035,'1 ',    67.500,    -4.808,    19.170,   -12.960,1.00000,    0,   108.000,   0.00000,   1.00000,   0.00000,   0.00000,1.00000,1,  100.0,    90.000,    27.000,   1,1.0000,   0,1.0000,   0,1.0000,   0,1.0000,1, 1.0000
 1036,'1 ',    78.600,     0.000,     0.000,     0.000,1.00000,    0,   327.500,   0.00000,   1.00000,   0.00000,   0.00000,1.00000,1,  100.0,   262.000,     0.000,   1,1.0000,   0,1.0000,   0,1.0000,   0,1.0000,1, 1.0000
 1037,'1 ',    54.000,     0.000,     0.000,     0.000,1.00000,    0,   225.000,   0.00000,   1.00000,   0.00000,   0.00000,1.00000,1,  100.0,   180.000,     0.000,   1,1.0000,   0,1.0000,   0,1.0000,   0,1.0000,1, 1.0000
 1039,'1 ',   110.630,   -21.240,    31.420,   -21.240,1.00000,    0,   177.000,   0.00000,   1.00000,   0.00000,   0.00000,1.00000,1,  100.0,   147.500,    44.250,   1,1.0000,   0,1.0000,   0,1.0000,   0,1.0000,1, 1.0000
 1040,'1 ',    48.210,   -26.830,    62.723,   -62.723,1.00000,    0,   200.875,   0.00000,   1.00000,   0.00000,   0.00000,1.00000,1,  100.0,   160.700,     0.000,   1,1.0000,   0,1.0000,   0,1.0000,   0,1.0000,1, 1.0000
 1040,'2 ',   325.170,     0.000,     0.000,     0.000,1.00000,    0,  1354.875,   0.00000,   1.00000,   0.00000,   0.00000,1.00000,1,  100.0,  1083.900,     0.000,   1,1.0000,   0,1.0000,   0,1.0000,   0,1.0000,1, 1.0000
 1042,'1 ',     0.000,     0.000,    25.960,   -17.550,1.00000,    0,   146.280,   0.00000,   1.00000,   0.00000,   0.00000,1.00000,0,  100.0,   121.900,    36.570,   1,1.0000,   0,1.0000,   0,1.0000,   0,1.0000,1, 1.0000
 1043,'1 ',    44.100,    -6.085,    12.520,    -8.470,1.00000,    0,    70.560,   0.00000,   1.00000,   0.00000,   0.00000,1.00000,1,  100.0,    58.800,    17.640,   1,1.0000,   0,1.0000,   0,1.0000,   0,1.0000,1, 1.0000
 1044,'1 ',    90.720,    -3.499,   118.030,  -118.030,1.00000,    0,   378.000,   0.00000,   1.00000,   0.00000,   0.00000,1.00000,1,  100.0,   302.400,     0.000,   1,1.0000,   0,1.0000,   0,1.0000,   0,1.0000,1, 1.0000
 1046,'1 ',   457.350,  -112.457,   595.031,  -595.031,1.00000,    0,  1905.625,   0.00000,   1.00000,   0.00000,   0.00000,1.00000,1,  100.0,  1524.500,     0.000,   1,1.0000,   0,1.0000,   0,1.0000,   0,1.0000,1, 1.0000
 1048,'1 ',     0.000,     0.000,   165.530,   -36.100,1.00000,    0,   390.240,   0.00000,   0.35000,   0.00000,   0.00000,1.00000,0,  100.0,   325.200,    97.560,   1,1.0000,   0,1.0000,   0,1.0000,   0,1.0000,0, 1.0000
 1049,'1 ',     0.000,     0.000,   165.530,   -36.100,1.00000,    0,   390.240,   0.00000,   0.23000,   0.00000,   0.00000,1.00000,0,  100.0,   325.200,    97.560,   1,1.0000,   0,1.0000,   0,1.0000,   0,1.0000,0, 1.0000
 1050,'1 ',    41.635,    15.460,    45.500,    -9.920,1.00000,    0,   107.280,   0.00000,   0.15000,   0.00000,   0.00000,1.00000,1,  100.0,    89.400,     0.000,   1,1.0000,   0,1.0000,   0,1.0000,   0,1.0000,0, 1.0000
 1051,'1 ',    27.190,     6.114,    45.500,    -9.920,1.00000,    0,   107.280,   0.00000,   0.31000,   0.00000,   0.00000,1.00000,0,  100.0,    89.400,    26.820,   1,1.0000,   0,1.0000,   0,1.0000,   0,1.0000,0, 1.0000
 1052,'1 ',    27.190,     9.914,    45.500,    -9.920,1.00000,    0,   107.280,   0.00000,   0.26000,   0.00000,   0.00000,1.00000,0,  100.0,    89.400,    26.820,   1,1.0000,   0,1.0000,   0,1.0000,   0,1.0000,0, 1.0000
 1053,'1 ',     0.000,     0.000,    91.010,   -19.850,1.00000,    0,   214.560,   0.00000,   0.28000,   0.00000,   0.00000,1.00000,0,  100.0,   178.800,    53.640,   1,1.0000,   0,1.0000,   0,1.0000,   0,1.0000,0, 1.0000
 1055,'1 ',    74.220,     0.532,    96.563,   -96.563,1.00000,    0,   309.250,   0.00000,   1.00000,   0.00000,   0.00000,1.00000,1,  100.0,   247.400,     0.000,   1,1.0000,   0,1.0000,   0,1.0000,   0,1.0000,1, 1.0000
 1057,'1 ',     0.000,     0.000,    25.560,   -17.280,1.00000,    0,   144.000,   0.00000,   1.00000,   0.00000,   0.00000,1.00000,0,  100.0,   120.000,    36.000,   1,1.0000,   0,1.0000,   0,1.0000,   0,1.0000,1, 1.0000
 1059,'1 ',     0.000,     0.000,     2.850,    -0.620,1.04000,    0,     6.720,   0.00000,   0.31000,   0.00000,   0.00000,1.00000,0,  100.0,     5.600,     1.680,   1,1.0000,   0,1.0000,   0,1.0000,   0,1.0000,0, 1.0000
 1060,'1 ',     0.000,     0.000,     1.020,    -0.220,1.04000,    0,     2.400,   0.00000,   0.18000,   0.00000,   0.00000,1.00000,0,  100.0,     2.000,     0.600,   1,1.0000,   0,1.0000,   0,1.0000,   0,1.0000,0, 1.0000
 1061,'1 ',    35.001,   -30.625,    45.536,   -45.536,1.00000,    0,   145.833,   0.00000,   1.00000,   0.00000,   0.00000,1.00000,1,  100.0,   116.667,     0.000,   1,1.0000,   0,1.0000,   0,1.0000,   0,1.0000,1, 1.0000
 1062,'1 ',     0.000,     0.000,     0.000,     0.000,1.01000,    0,     1.800,   0.00000,   1.00000,   0.00000,   0.00000,1.00000,0,  100.0,     1.500,     0.450,   1,1.0000,   0,1.0000,   0,1.0000,   0,1.0000,1, 1.0000
 1062,'2 ',    35.001,     8.365,    45.536,   -45.536,1.01000,    0,   145.833,   0.00000,   1.00000,   0.00000,   0.00000,1.00000,1,  100.0,   116.667,     0.000,   1,1.0000,   0,1.0000,   0,1.0000,   0,1.0000,1, 1.0000
 1063,'1 ',     0.000,     0.000,     0.000,     0.000,1.01000,    0,   276.000,   0.00000,   1.00000,   0.00000,   0.00000,1.00000,0,  100.0,   230.000,    69.000,   1,1.0000,   0,1.0000,   0,1.0000,   0,1.0000,1, 1.0000
 1063,'2 ',    35.001,     8.412,    45.536,   -45.536,1.01000,    0,   145.833,   0.00000,   1.00000,   0.00000,   0.00000,1.00000,1,  100.0,   116.667,     0.000,   1,1.0000,   0,1.0000,   0,1.0000,   0,1.0000,1, 1.0000
 1066,'1 ',   106.880,   -10.148,    30.350,   -20.520,1.00000,    0,   171.000,   0.00000,   1.00000,   0.00000,   0.00000,1.00000,1,  100.0,   142.500,    42.750,   1,1.0000,   0,1.0000,   0,1.0000,   0,1.0000,1, 1.0000
 1070,'1 ',   120.380,    34.190,    34.190,   -23.110,1.04000,    0,   192.600,   0.00000,   1.00000,   0.00000,   0.00000,1.00000,1,  100.0,   160.500,    48.150,   1,1.0000,   0,1.0000,   0,1.0000,   0,1.0000,1, 1.0000
 1072,'1 ',    74.546,    83.319,    97.800,   -21.330,1.01000,    0,   230.560,   0.00000,   0.29000,   0.00000,   0.00000,1.00000,1,  100.0,   192.130,     0.000,   1,1.0000,   0,1.0000,   0,1.0000,   0,1.0000,0, 1.0000
 1073,'1 ',    74.546,    51.432,    97.800,   -21.330,1.01000,    0,   230.560,   0.00000,   0.31000,   0.00000,   0.00000,1.00000,1,  100.0,   192.130,     0.000,   1,1.0000,   0,1.0000,   0,1.0000,   0,1.0000,0, 1.0000
 1074,'1 ',   160.365,    42.658,    97.800,   -21.330,1.01000,    0,   230.560,   0.00000,   0.40000,   0.00000,   0.00000,1.00000,0,  100.0,   192.130,    57.640,   1,1.0000,   0,1.0000,   0,1.0000,   0,1.0000,0, 1.0000
 1075,'1 ',   160.365,    54.032,    97.800,   -21.330,1.01000,    0,   230.560,   0.00000,   0.27000,   0.00000,   0.00000,1.00000,0,  100.0,   192.130,    57.640,   1,1.0000,   0,1.0000,   0,1.0000,   0,1.0000,0, 1.0000
 1076,'1 ',     0.000,     0.000,    97.800,   -21.330,1.01000,    0,   230.560,   0.00000,   0.13000,   0.00000,   0.00000,1.00000,0,  100.0,   192.130,    57.640,   1,1.0000,   0,1.0000,   0,1.0000,   0,1.0000,0, 1.0000
 1077,'1 ',     0.000,     0.000,    97.800,   -21.330,1.01000,    0,   230.560,   0.00000,   0.39000,   0.00000,   0.00000,1.00000,0,  100.0,   192.130,    57.640,   1,1.0000,   0,1.0000,   0,1.0000,   0,1.0000,0, 1.0000
...